[General]
#scheduler-class = "inet::cRealTimeScheduler" #so that speed appears realistic
sim-time-limit = 1000s
**.newKey = 
#abstract-config = true (requires omnet 7)

[Config Area]
#abstract-config = true (requires omnet 7)
**.constraintAreaMinX = 0m
**.constraintAreaMinY = 0m
**.constraintAreaMinZ = 0m
**.constraintAreaMaxX = 600m
**.constraintAreaMaxY = 400m
**.constraintAreaMaxZ = 0m
**.targ0x=10m
**.targ0y=10m
**.targ1x=990m
**.targ1y=990m
*.visualizer.mobilityVisualizer.displayMobility = true # master switch
*.visualizer.mobilityVisualizer.displayPositions = true
*.visualizer.mobilityVisualizer.displayOrientations = true
*.visualizer.mobilityVisualizer.displayVelocities = true
*.visualizer.mobilityVisualizer.displayMovementTrails = true

[Config Update]
#abstract-config = true (requires omnet 7)
**.updateInterval = 0.1s # test with 0s too, and let getCurrentPosition update the display string from a test module

[PersistentMonitoring]
network = agentNetwork
**.networkConfiguratorModule = ""
*.agent[*].mobility.typename = "agentMobility"
