[General]
#scheduler-class = "inet::cRealTimeScheduler" #so that speed appears realistic
sim-time-limit = 1000s
user-interface = Cmdenv

#abstract-config = true (requires omnet 7)

[Config Update]
#abstract-config = true (requires omnet 7)
**.updateInterval = 0.1s # test with 0s too, and let getCurrentPosition update the display string from a test module
**.mobility.initFromDisplayString = false

*.displayStringTextFormat = ""
*.updateInterval = 0.1s
*.faceForward = true
[PersistentMonitoring]
*.Target[*].mobility.typename = "StationaryMobility"

*.agentMobility[*].mobility.initialX =uniform(10m, 490m)
*.agentMobility[*].mobility.initialY =uniform(10m, 490m)
*.Target[*].mobility.initialX =uniform(10m,490m)
*.Target[*].mobility.initialY =uniform(10m,490m)


**.borderPolicy = "reflect"
sim-time-limit = 1000s
cmdenv-autoflush = true
cmdenv-express-mode = false  # This shows every single event, not just summaries
network = PersistentMonitoringNetwork

**.networkConfiguratorModule = ""

**.num_agents = 3
